20

C         -9.71238        0.60608       -5.44406
C         -9.40292       -0.70044       -4.95441
C         -9.22820       -0.63779       -3.64223
C         -9.41921        0.77908       -3.14208
C         -9.69928        1.47820       -4.44742
C         -8.17293        1.30990       -2.51000
C         -8.25148        2.17837       -1.39724
C         -6.88665        1.01883       -3.04617
C         -5.74556        1.54154       -2.44096
C         -5.82956        2.39005       -1.32738
C         -7.09091        2.68791       -0.80822
H         -9.88877        0.86010       -6.48701
H         -9.87165        2.53673       -4.55522
H         -9.30968       -1.59234       -5.53656
H         -8.97747       -1.49877       -3.01574
H         -6.75773        0.38837       -3.89398
H         -4.77745        1.27228       -2.85215
H         -4.94029        2.79348       -0.86371
H         -7.17036        3.33731        0.04747
H         -9.20604        2.45376       -0.96852
